*BRUTE_FORCE_VOLTAGE_SOURCE
.SUBCKT PWM VOUT GND	
	VTHR VOUT GND PWL(
	+ 0.0000ms,3.3V 0.0001ms,3.3
	+ 0.0002ms,0.0V 0.0199ms,0.0
	+ 0.0200ms,3.3V 0.0201ms,3.3
	+ 0.0202ms,0.0V 0.0399ms,0.0
	+ 0.0400ms,3.3V 0.0401ms,3.3
	+ 0.0402ms,0.0V 0.0599ms,0.0
	+ 0.0600ms,3.3V 0.0601ms,3.3
	+ 0.0602ms,0.0V 0.0799ms,0.0
	+ 0.0800ms,3.3V 0.0801ms,3.3
	+ 0.0802ms,0.0V 0.0999ms,0.0
	+ 0.1000ms,3.3V 0.1001ms,3.3
	+ 0.1002ms,0.0V 0.1199ms,0.0
	+ 0.1200ms,3.3V 0.1201ms,3.3
	+ 0.1202ms,0.0V 0.1399ms,0.0
	+ 0.1400ms,3.3V 0.1401ms,3.3
	+ 0.1402ms,0.0V 0.1599ms,0.0
	+ 0.1600ms,3.3V 0.1601ms,3.3
	+ 0.1602ms,0.0V 0.1799ms,0.0
	+ 0.1800ms,3.3V 0.1801ms,3.3
	+ 0.1802ms,0.0V 0.1999ms,0.0
	+ 0.2000ms,3.3V 0.2001ms,3.3
	+ 0.2002ms,0.0V 0.2199ms,0.0
	+ 0.2200ms,3.3V 0.2201ms,3.3
	+ 0.2202ms,0.0V 0.2399ms,0.0
	+ 0.2400ms,3.3V 0.2401ms,3.3
	+ 0.2402ms,0.0V 0.2599ms,0.0
	+ 0.2600ms,3.3V 0.2601ms,3.3
	+ 0.2602ms,0.0V 0.2799ms,0.0
	+ 0.2800ms,3.3V 0.2801ms,3.3
	+ 0.2802ms,0.0V 0.2999ms,0.0
	+ 0.3000ms,3.3V 0.3001ms,3.3
	+ 0.3002ms,0.0V 0.3199ms,0.0
	+ 0.3200ms,3.3V 0.3201ms,3.3
	+ 0.3202ms,0.0V 0.3399ms,0.0
	+ 0.3400ms,3.3V 0.3401ms,3.3
	+ 0.3402ms,0.0V 0.3599ms,0.0
	+ 0.3600ms,3.3V 0.3601ms,3.3
	+ 0.3602ms,0.0V 0.3799ms,0.0
	+ 0.3800ms,3.3V 0.3801ms,3.3
	+ 0.3802ms,0.0V 0.3999ms,0.0
	+ 0.4000ms,3.3V 0.4001ms,3.3
	+ 0.4002ms,0.0V 0.4199ms,0.0
	+ 0.4200ms,3.3V 0.4201ms,3.3
	+ 0.4202ms,0.0V 0.4399ms,0.0
	+ 0.4400ms,3.3V 0.4401ms,3.3
	+ 0.4402ms,0.0V 0.4599ms,0.0
	+ 0.4600ms,3.3V 0.4601ms,3.3
	+ 0.4602ms,0.0V 0.4799ms,0.0
	+ 0.4800ms,3.3V 0.4801ms,3.3
	+ 0.4802ms,0.0V 0.4999ms,0.0
	+ 0.5000ms,3.3V 0.5001ms,3.3
	+ 0.5002ms,0.0V 0.5199ms,0.0
	+ 0.5200ms,3.3V 0.5201ms,3.3
	+ 0.5202ms,0.0V 0.5399ms,0.0
	+ 0.5400ms,3.3V 0.5401ms,3.3
	+ 0.5402ms,0.0V 0.5599ms,0.0
	+ 0.5600ms,3.3V 0.5601ms,3.3
	+ 0.5602ms,0.0V 0.5799ms,0.0
	+ 0.5800ms,3.3V 0.5801ms,3.3
	+ 0.5802ms,0.0V 0.5999ms,0.0
	+ 0.6000ms,3.3V 0.6001ms,3.3
	+ 0.6002ms,0.0V 0.6199ms,0.0
	+ 0.6200ms,3.3V 0.6201ms,3.3
	+ 0.6202ms,0.0V 0.6399ms,0.0
	+ 0.6400ms,3.3V 0.6401ms,3.3
	+ 0.6402ms,0.0V 0.6599ms,0.0
	+ 0.6600ms,3.3V 0.6601ms,3.3
	+ 0.6602ms,0.0V 0.6799ms,0.0
	+ 0.6800ms,3.3V 0.6801ms,3.3
	+ 0.6802ms,0.0V 0.6999ms,0.0
	+ 0.7000ms,3.3V 0.7001ms,3.3
	+ 0.7002ms,0.0V 0.7199ms,0.0
	+ 0.7200ms,3.3V 0.7201ms,3.3
	+ 0.7202ms,0.0V 0.7399ms,0.0
	+ 0.7400ms,3.3V 0.7401ms,3.3
	+ 0.7402ms,0.0V 0.7599ms,0.0
	+ 0.7600ms,3.3V 0.7601ms,3.3
	+ 0.7602ms,0.0V 0.7799ms,0.0
	+ 0.7800ms,3.3V 0.7801ms,3.3
	+ 0.7802ms,0.0V 0.7999ms,0.0
	+ 0.8000ms,3.3V 0.8001ms,3.3
	+ 0.8002ms,0.0V 0.8199ms,0.0
	+ 0.8200ms,3.3V 0.8201ms,3.3
	+ 0.8202ms,0.0V 0.8399ms,0.0
	+ 0.8400ms,3.3V 0.8401ms,3.3
	+ 0.8402ms,0.0V 0.8599ms,0.0
	+ 0.8600ms,3.3V 0.8601ms,3.3
	+ 0.8602ms,0.0V 0.8799ms,0.0
	+ 0.8800ms,3.3V 0.8801ms,3.3
	+ 0.8802ms,0.0V 0.8999ms,0.0
	+ 0.9000ms,3.3V 0.9001ms,3.3
	+ 0.9002ms,0.0V 0.9199ms,0.0
	+ 0.9200ms,3.3V 0.9201ms,3.3
	+ 0.9202ms,0.0V 0.9399ms,0.0
	+ 0.9400ms,3.3V 0.9401ms,3.3
	+ 0.9402ms,0.0V 0.9599ms,0.0
	+ 0.9600ms,3.3V 0.9601ms,3.3
	+ 0.9602ms,0.0V 0.9799ms,0.0
	+ 0.9800ms,3.3V 0.9801ms,3.3
	+ 0.9802ms,0.0V 0.9999ms,0.0
	+ 1.0000ms,3.3V 1.0001ms,3.3
	+ 1.0002ms,0.0V 1.0199ms,0.0
	+ 1.0200ms,3.3V 1.0201ms,3.3
	+ 1.0202ms,0.0V 1.0399ms,0.0
	+ 1.0400ms,3.3V 1.0401ms,3.3
	+ 1.0402ms,0.0V 1.0599ms,0.0
	+ 1.0600ms,3.3V 1.0601ms,3.3
	+ 1.0602ms,0.0V 1.0799ms,0.0
	+ 1.0800ms,3.3V 1.0801ms,3.3
	+ 1.0802ms,0.0V 1.0999ms,0.0
	+ 1.1000ms,3.3V 1.1001ms,3.3
	+ 1.1002ms,0.0V 1.1199ms,0.0
	+ 1.1200ms,3.3V 1.1201ms,3.3
	+ 1.1202ms,0.0V 1.1399ms,0.0
	+ 1.1400ms,3.3V 1.1401ms,3.3
	+ 1.1402ms,0.0V 1.1599ms,0.0
	+ 1.1600ms,3.3V 1.1601ms,3.3
	+ 1.1602ms,0.0V 1.1799ms,0.0
	+ 1.1800ms,3.3V 1.1801ms,3.3
	+ 1.1802ms,0.0V 1.1999ms,0.0
	+ 1.2000ms,3.3V 1.2001ms,3.3
	+ 1.2002ms,0.0V 1.2199ms,0.0
	+ 1.2200ms,3.3V 1.2201ms,3.3
	+ 1.2202ms,0.0V 1.2399ms,0.0
	+ 1.2400ms,3.3V 1.2401ms,3.3
	+ 1.2402ms,0.0V 1.2599ms,0.0
	+ 1.2600ms,3.3V 1.2601ms,3.3
	+ 1.2602ms,0.0V 1.2799ms,0.0
	+ 1.2800ms,3.3V 1.2801ms,3.3
	+ 1.2802ms,0.0V 1.2999ms,0.0
	+ 1.3000ms,3.3V 1.3001ms,3.3
	+ 1.3002ms,0.0V 1.3199ms,0.0
	+ 1.3200ms,3.3V 1.3201ms,3.3
	+ 1.3202ms,0.0V 1.3399ms,0.0
	+ 1.3400ms,3.3V 1.3401ms,3.3
	+ 1.3402ms,0.0V 1.3599ms,0.0
	+ 1.3600ms,3.3V 1.3601ms,3.3
	+ 1.3602ms,0.0V 1.3799ms,0.0
	+ 1.3800ms,3.3V 1.3801ms,3.3
	+ 1.3802ms,0.0V 1.3999ms,0.0
	+ 1.4000ms,3.3V 1.4001ms,3.3
	+ 1.4002ms,0.0V 1.4199ms,0.0
	+ 1.4200ms,3.3V 1.4201ms,3.3
	+ 1.4202ms,0.0V 1.4399ms,0.0
	+ 1.4400ms,3.3V 1.4401ms,3.3
	+ 1.4402ms,0.0V 1.4599ms,0.0
	+ 1.4600ms,3.3V 1.4601ms,3.3
	+ 1.4602ms,0.0V 1.4799ms,0.0
	+ 1.4800ms,3.3V 1.4801ms,3.3
	+ 1.4802ms,0.0V 1.4999ms,0.0
	+ 1.5000ms,3.3V 1.5001ms,3.3
	+ 1.5002ms,0.0V 1.5199ms,0.0
	+ 1.5200ms,3.3V 1.5201ms,3.3
	+ 1.5202ms,0.0V 1.5399ms,0.0
	+ 1.5400ms,3.3V 1.5401ms,3.3
	+ 1.5402ms,0.0V 1.5599ms,0.0
	+ 1.5600ms,3.3V 1.5601ms,3.3
	+ 1.5602ms,0.0V 1.5799ms,0.0
	+ 1.5800ms,3.3V 1.5801ms,3.3
	+ 1.5802ms,0.0V 1.5999ms,0.0
	+ 1.6000ms,3.3V 1.6001ms,3.3
	+ 1.6002ms,0.0V 1.6199ms,0.0
	+ 1.6200ms,3.3V 1.6201ms,3.3
	+ 1.6202ms,0.0V 1.6399ms,0.0
	+ 1.6400ms,3.3V 1.6401ms,3.3
	+ 1.6402ms,0.0V 1.6599ms,0.0
	+ 1.6600ms,3.3V 1.6601ms,3.3
	+ 1.6602ms,0.0V 1.6799ms,0.0
	+ 1.6800ms,3.3V 1.6801ms,3.3
	+ 1.6802ms,0.0V 1.6999ms,0.0
	+ 1.7000ms,3.3V 1.7001ms,3.3
	+ 1.7002ms,0.0V 1.7199ms,0.0
	+ 1.7200ms,3.3V 1.7201ms,3.3
	+ 1.7202ms,0.0V 1.7399ms,0.0
	+ 1.7400ms,3.3V 1.7401ms,3.3
	+ 1.7402ms,0.0V 1.7599ms,0.0
	+ 1.7600ms,3.3V 1.7601ms,3.3
	+ 1.7602ms,0.0V 1.7799ms,0.0
	+ 1.7800ms,3.3V 1.7801ms,3.3
	+ 1.7802ms,0.0V 1.7999ms,0.0
	+ 1.8000ms,3.3V 1.8001ms,3.3
	+ 1.8002ms,0.0V 1.8199ms,0.0
	+ 1.8200ms,3.3V 1.8201ms,3.3
	+ 1.8202ms,0.0V 1.8399ms,0.0
	+ 1.8400ms,3.3V 1.8401ms,3.3
	+ 1.8402ms,0.0V 1.8599ms,0.0
	+ 1.8600ms,3.3V 1.8601ms,3.3
	+ 1.8602ms,0.0V 1.8799ms,0.0
	+ 1.8800ms,3.3V 1.8801ms,3.3
	+ 1.8802ms,0.0V 1.8999ms,0.0
	+ 1.9000ms,3.3V 1.9001ms,3.3
	+ 1.9002ms,0.0V 1.9199ms,0.0
	+ 1.9200ms,3.3V 1.9201ms,3.3
	+ 1.9202ms,0.0V 1.9399ms,0.0
	+ 1.9400ms,3.3V 1.9401ms,3.3
	+ 1.9402ms,0.0V 1.9599ms,0.0
	+ 1.9600ms,3.3V 1.9601ms,3.3
	+ 1.9602ms,0.0V 1.9799ms,0.0
	+ 1.9800ms,3.3V 1.9801ms,3.3
	+ 1.9802ms,0.0V 1.9999ms,0.0
	+ 2.0000ms,3.3V 2.0001ms,3.3
	+ 2.0002ms,0.0V 2.0199ms,0.0
	+ 2.0200ms,3.3V 2.0201ms,3.3
	+ 2.0202ms,0.0V 2.0399ms,0.0
	+ 2.0400ms,3.3V 2.0401ms,3.3
	+ 2.0402ms,0.0V 2.0599ms,0.0
	+ 2.0600ms,3.3V 2.0601ms,3.3
	+ 2.0602ms,0.0V 2.0799ms,0.0
	+ 2.0800ms,3.3V 2.0801ms,3.3
	+ 2.0802ms,0.0V 2.0999ms,0.0
	+ 2.1000ms,3.3V 2.1001ms,3.3
	+ 2.1002ms,0.0V 2.1199ms,0.0
	+ 2.1200ms,3.3V 2.1201ms,3.3
	+ 2.1202ms,0.0V 2.1399ms,0.0
	+ 2.1400ms,3.3V 2.1401ms,3.3
	+ 2.1402ms,0.0V 2.1599ms,0.0
	+ 2.1600ms,3.3V 2.1601ms,3.3
	+ 2.1602ms,0.0V 2.1799ms,0.0
	+ 2.1800ms,3.3V 2.1801ms,3.3
	+ 2.1802ms,0.0V 2.1999ms,0.0
	+ 2.2000ms,3.3V 2.2001ms,3.3
	+ 2.2002ms,0.0V 2.2199ms,0.0
	+ 2.2200ms,3.3V 2.2201ms,3.3
	+ 2.2202ms,0.0V 2.2399ms,0.0
	+ 2.2400ms,3.3V 2.2401ms,3.3
	+ 2.2402ms,0.0V 2.2599ms,0.0
	+ 2.2600ms,3.3V 2.2601ms,3.3
	+ 2.2602ms,0.0V 2.2799ms,0.0
	+ 2.2800ms,3.3V 2.2801ms,3.3
	+ 2.2802ms,0.0V 2.2999ms,0.0
	+ 2.3000ms,3.3V 2.3001ms,3.3
	+ 2.3002ms,0.0V 2.3199ms,0.0
	+ 2.3200ms,3.3V 2.3201ms,3.3
	+ 2.3202ms,0.0V 2.3399ms,0.0
	+ 2.3400ms,3.3V 2.3401ms,3.3
	+ 2.3402ms,0.0V 2.3599ms,0.0
	+ 2.3600ms,3.3V 2.3601ms,3.3
	+ 2.3602ms,0.0V 2.3799ms,0.0
	+ 2.3800ms,3.3V 2.3801ms,3.3
	+ 2.3802ms,0.0V 2.3999ms,0.0
	+ 2.4000ms,3.3V 2.4001ms,3.3
	+ 2.4002ms,0.0V 2.4199ms,0.0
	+ 2.4200ms,3.3V 2.4201ms,3.3
	+ 2.4202ms,0.0V 2.4399ms,0.0
	+ 2.4400ms,3.3V 2.4401ms,3.3
	+ 2.4402ms,0.0V 2.4599ms,0.0
	+ 2.4600ms,3.3V 2.4601ms,3.3
	+ 2.4602ms,0.0V 2.4799ms,0.0
	+ 2.4800ms,3.3V 2.4801ms,3.3
	+ 2.4802ms,0.0V 2.4999ms,0.0
	+ 2.5000ms,3.3V 2.5001ms,3.3
	+ 2.5002ms,0.0V 2.5199ms,0.0
	+ 2.5200ms,3.3V 2.5201ms,3.3
	+ 2.5202ms,0.0V 2.5399ms,0.0
	+ 2.5400ms,3.3V 2.5401ms,3.3
	+ 2.5402ms,0.0V 2.5599ms,0.0
	+ 2.5600ms,3.3V 2.5601ms,3.3
	+ 2.5602ms,0.0V 2.5799ms,0.0
	+ 2.5800ms,3.3V 2.5801ms,3.3
	+ 2.5802ms,0.0V 2.5999ms,0.0
	+ 2.6000ms,3.3V 2.6001ms,3.3
	+ 2.6002ms,0.0V 2.6199ms,0.0
	+ 2.6200ms,3.3V 2.6201ms,3.3
	+ 2.6202ms,0.0V 2.6399ms,0.0
	+ 2.6400ms,3.3V 2.6401ms,3.3
	+ 2.6402ms,0.0V 2.6599ms,0.0
	+ 2.6600ms,3.3V 2.6601ms,3.3
	+ 2.6602ms,0.0V 2.6799ms,0.0
	+ 2.6800ms,3.3V 2.6801ms,3.3
	+ 2.6802ms,0.0V 2.6999ms,0.0
	+ 2.7000ms,3.3V 2.7001ms,3.3
	+ 2.7002ms,0.0V 2.7199ms,0.0
	+ 2.7200ms,3.3V 2.7201ms,3.3
	+ 2.7202ms,0.0V 2.7399ms,0.0
	+ 2.7400ms,3.3V 2.7401ms,3.3
	+ 2.7402ms,0.0V 2.7599ms,0.0
	+ 2.7600ms,3.3V 2.7601ms,3.3
	+ 2.7602ms,0.0V 2.7799ms,0.0
	+ 2.7800ms,3.3V 2.7801ms,3.3
	+ 2.7802ms,0.0V 2.7999ms,0.0
	+ 2.8000ms,3.3V 2.8001ms,3.3
	+ 2.8002ms,0.0V 2.8199ms,0.0
	+ 2.8200ms,3.3V 2.8201ms,3.3
	+ 2.8202ms,0.0V 2.8399ms,0.0
	+ 2.8400ms,3.3V 2.8401ms,3.3
	+ 2.8402ms,0.0V 2.8599ms,0.0
	+ 2.8600ms,3.3V 2.8601ms,3.3
	+ 2.8602ms,0.0V 2.8799ms,0.0
	+ 2.8800ms,3.3V 2.8801ms,3.3
	+ 2.8802ms,0.0V 2.8999ms,0.0
	+ 2.9000ms,3.3V 2.9001ms,3.3
	+ 2.9002ms,0.0V 2.9199ms,0.0
	+ 2.9200ms,3.3V 2.9201ms,3.3
	+ 2.9202ms,0.0V 2.9399ms,0.0
	+ 2.9400ms,3.3V 2.9401ms,3.3
	+ 2.9402ms,0.0V 2.9599ms,0.0
	+ 2.9600ms,3.3V 2.9601ms,3.3
	+ 2.9602ms,0.0V 2.9799ms,0.0
	+ 2.9800ms,3.3V 2.9801ms,3.3
	+ 2.9802ms,0.0V 2.9999ms,0.0
	+ 3.0000ms,3.3V 3.0001ms,3.3
	+ 3.0002ms,0.0V 3.0199ms,0.0
	+ 3.0200ms,3.3V 3.0201ms,3.3
	+ 3.0202ms,0.0V 3.0399ms,0.0
	+ 3.0400ms,3.3V 3.0401ms,3.3
	+ 3.0402ms,0.0V 3.0599ms,0.0
	+ 3.0600ms,3.3V 3.0601ms,3.3
	+ 3.0602ms,0.0V 3.0799ms,0.0
	+ 3.0800ms,3.3V 3.0801ms,3.3
	+ 3.0802ms,0.0V 3.0999ms,0.0
	+ 3.1000ms,3.3V 3.1001ms,3.3
	+ 3.1002ms,0.0V 3.1199ms,0.0
	+ 3.1200ms,3.3V 3.1201ms,3.3
	+ 3.1202ms,0.0V 3.1399ms,0.0
	+ 3.1400ms,3.3V 3.1401ms,3.3
	+ 3.1402ms,0.0V 3.1599ms,0.0
	+ 3.1600ms,3.3V 3.1601ms,3.3
	+ 3.1602ms,0.0V 3.1799ms,0.0
	+ 3.1800ms,3.3V 3.1801ms,3.3
	+ 3.1802ms,0.0V 3.1999ms,0.0
	+ 3.2000ms,3.3V 3.2001ms,3.3
	+ 3.2002ms,0.0V 3.2199ms,0.0
	+ 3.2200ms,3.3V 3.2201ms,3.3
	+ 3.2202ms,0.0V 3.2399ms,0.0
	+ 3.2400ms,3.3V 3.2401ms,3.3
	+ 3.2402ms,0.0V 3.2599ms,0.0
	+ 3.2600ms,3.3V 3.2601ms,3.3
	+ 3.2602ms,0.0V 3.2799ms,0.0
	+ 3.2800ms,3.3V 3.2801ms,3.3
	+ 3.2802ms,0.0V 3.2999ms,0.0
	+ 3.3000ms,3.3V 3.3001ms,3.3
	+ 3.3002ms,0.0V 3.3199ms,0.0
	+ 3.3200ms,3.3V 3.3201ms,3.3
	+ 3.3202ms,0.0V 3.3399ms,0.0
	+ 3.3400ms,3.3V 3.3401ms,3.3
	+ 3.3402ms,0.0V 3.3599ms,0.0
	+ 3.3600ms,3.3V 3.3601ms,3.3
	+ 3.3602ms,0.0V 3.3799ms,0.0
	+ 3.3800ms,3.3V 3.3801ms,3.3
	+ 3.3802ms,0.0V 3.3999ms,0.0
	+ 3.4000ms,3.3V 3.4001ms,3.3
	+ 3.4002ms,0.0V 3.4199ms,0.0
	+ 3.4200ms,3.3V 3.4201ms,3.3
	+ 3.4202ms,0.0V 3.4399ms,0.0
	+ 3.4400ms,3.3V 3.4401ms,3.3
	+ 3.4402ms,0.0V 3.4599ms,0.0
	+ 3.4600ms,3.3V 3.4601ms,3.3
	+ 3.4602ms,0.0V 3.4799ms,0.0
	+ 3.4800ms,3.3V 3.4801ms,3.3
	+ 3.4802ms,0.0V 3.4999ms,0.0
	+ 3.5000ms,3.3V 3.5001ms,3.3
	+ 3.5002ms,0.0V 3.5199ms,0.0
	+ 3.5200ms,3.3V 3.5201ms,3.3
	+ 3.5202ms,0.0V 3.5399ms,0.0
	+ 3.5400ms,3.3V 3.5401ms,3.3
	+ 3.5402ms,0.0V 3.5599ms,0.0
	+ 3.5600ms,3.3V 3.5601ms,3.3
	+ 3.5602ms,0.0V 3.5799ms,0.0
	+ 3.5800ms,3.3V 3.5801ms,3.3
	+ 3.5802ms,0.0V 3.5999ms,0.0
	+ 3.6000ms,3.3V 3.6001ms,3.3
	+ 3.6002ms,0.0V 3.6199ms,0.0
	+ 3.6200ms,3.3V 3.6201ms,3.3
	+ 3.6202ms,0.0V 3.6399ms,0.0
	+ 3.6400ms,3.3V 3.6401ms,3.3
	+ 3.6402ms,0.0V 3.6599ms,0.0
	+ 3.6600ms,3.3V 3.6601ms,3.3
	+ 3.6602ms,0.0V 3.6799ms,0.0
	+ 3.6800ms,3.3V 3.6801ms,3.3
	+ 3.6802ms,0.0V 3.6999ms,0.0
	+ 3.7000ms,3.3V 3.7001ms,3.3
	+ 3.7002ms,0.0V 3.7199ms,0.0
	+ 3.7200ms,3.3V 3.7201ms,3.3
	+ 3.7202ms,0.0V 3.7399ms,0.0
	+ 3.7400ms,3.3V 3.7401ms,3.3
	+ 3.7402ms,0.0V 3.7599ms,0.0
	+ 3.7600ms,3.3V 3.7601ms,3.3
	+ 3.7602ms,0.0V 3.7799ms,0.0
	+ 3.7800ms,3.3V 3.7801ms,3.3
	+ 3.7802ms,0.0V 3.7999ms,0.0
	+ 3.8000ms,3.3V 3.8001ms,3.3
	+ 3.8002ms,0.0V 3.8199ms,0.0
	+ 3.8200ms,3.3V 3.8201ms,3.3
	+ 3.8202ms,0.0V 3.8399ms,0.0
	+ 3.8400ms,3.3V 3.8401ms,3.3
	+ 3.8402ms,0.0V 3.8599ms,0.0
	+ 3.8600ms,3.3V 3.8601ms,3.3
	+ 3.8602ms,0.0V 3.8799ms,0.0
	+ 3.8800ms,3.3V 3.8801ms,3.3
	+ 3.8802ms,0.0V 3.8999ms,0.0
	+ 3.9000ms,3.3V 3.9001ms,3.3
	+ 3.9002ms,0.0V 3.9199ms,0.0
	+ 3.9200ms,3.3V 3.9201ms,3.3
	+ 3.9202ms,0.0V 3.9399ms,0.0
	+ 3.9400ms,3.3V 3.9401ms,3.3
	+ 3.9402ms,0.0V 3.9599ms,0.0
	+ 3.9600ms,3.3V 3.9601ms,3.3
	+ 3.9602ms,0.0V 3.9799ms,0.0
	+ 3.9800ms,3.3V 3.9801ms,3.3
	+ 3.9802ms,0.0V 3.9999ms,0.0
	+ 4.0000ms,3.3V 4.0001ms,3.3
	+ 4.0002ms,0.0V 4.0199ms,0.0
	+ 4.0200ms,3.3V 4.0201ms,3.3
	+ 4.0202ms,0.0V 4.0399ms,0.0
	+ 4.0400ms,3.3V 4.0401ms,3.3
	+ 4.0402ms,0.0V 4.0599ms,0.0
	+ 4.0600ms,3.3V 4.0601ms,3.3
	+ 4.0602ms,0.0V 4.0799ms,0.0
	+ 4.0800ms,3.3V 4.0801ms,3.3
	+ 4.0802ms,0.0V 4.0999ms,0.0
	+ 4.1000ms,3.3V 4.1001ms,3.3
	+ 4.1002ms,0.0V 4.1199ms,0.0
	+ 4.1200ms,3.3V 4.1201ms,3.3
	+ 4.1202ms,0.0V 4.1399ms,0.0
	+ 4.1400ms,3.3V 4.1401ms,3.3
	+ 4.1402ms,0.0V 4.1599ms,0.0
	+ 4.1600ms,3.3V 4.1601ms,3.3
	+ 4.1602ms,0.0V 4.1799ms,0.0
	+ 4.1800ms,3.3V 4.1801ms,3.3
	+ 4.1802ms,0.0V 4.1999ms,0.0
	+ 4.2000ms,3.3V 4.2001ms,3.3
	+ 4.2002ms,0.0V 4.2199ms,0.0
	+ 4.2200ms,3.3V 4.2201ms,3.3
	+ 4.2202ms,0.0V 4.2399ms,0.0
	+ 4.2400ms,3.3V 4.2401ms,3.3
	+ 4.2402ms,0.0V 4.2599ms,0.0
	+ 4.2600ms,3.3V 4.2601ms,3.3
	+ 4.2602ms,0.0V 4.2799ms,0.0
	+ 4.2800ms,3.3V 4.2801ms,3.3
	+ 4.2802ms,0.0V 4.2999ms,0.0
	+ 4.3000ms,3.3V 4.3001ms,3.3
	+ 4.3002ms,0.0V 4.3199ms,0.0
	+ 4.3200ms,3.3V 4.3201ms,3.3
	+ 4.3202ms,0.0V 4.3399ms,0.0
	+ 4.3400ms,3.3V 4.3401ms,3.3
	+ 4.3402ms,0.0V 4.3599ms,0.0
	+ 4.3600ms,3.3V 4.3601ms,3.3
	+ 4.3602ms,0.0V 4.3799ms,0.0
	+ 4.3800ms,3.3V 4.3801ms,3.3
	+ 4.3802ms,0.0V 4.3999ms,0.0
	+ 4.4000ms,3.3V 4.4001ms,3.3
	+ 4.4002ms,0.0V 4.4199ms,0.0
	+ 4.4200ms,3.3V 4.4201ms,3.3
	+ 4.4202ms,0.0V 4.4399ms,0.0
	+ 4.4400ms,3.3V 4.4401ms,3.3
	+ 4.4402ms,0.0V 4.4599ms,0.0
	+ 4.4600ms,3.3V 4.4601ms,3.3
	+ 4.4602ms,0.0V 4.4799ms,0.0
	+ 4.4800ms,3.3V 4.4801ms,3.3
	+ 4.4802ms,0.0V 4.4999ms,0.0
	+ 4.5000ms,3.3V 4.5001ms,3.3
	+ 4.5002ms,0.0V 4.5199ms,0.0
	+ 4.5200ms,3.3V 4.5201ms,3.3
	+ 4.5202ms,0.0V 4.5399ms,0.0
	+ 4.5400ms,3.3V 4.5401ms,3.3
	+ 4.5402ms,0.0V 4.5599ms,0.0
	+ 4.5600ms,3.3V 4.5601ms,3.3
	+ 4.5602ms,0.0V 4.5799ms,0.0
	+ 4.5800ms,3.3V 4.5801ms,3.3
	+ 4.5802ms,0.0V 4.5999ms,0.0
	+ 4.6000ms,3.3V 4.6001ms,3.3
	+ 4.6002ms,0.0V 4.6199ms,0.0
	+ 4.6200ms,3.3V 4.6201ms,3.3
	+ 4.6202ms,0.0V 4.6399ms,0.0
	+ 4.6400ms,3.3V 4.6401ms,3.3
	+ 4.6402ms,0.0V 4.6599ms,0.0
	+ 4.6600ms,3.3V 4.6601ms,3.3
	+ 4.6602ms,0.0V 4.6799ms,0.0
	+ 4.6800ms,3.3V 4.6801ms,3.3
	+ 4.6802ms,0.0V 4.6999ms,0.0
	+ 4.7000ms,3.3V 4.7001ms,3.3
	+ 4.7002ms,0.0V 4.7199ms,0.0
	+ 4.7200ms,3.3V 4.7201ms,3.3
	+ 4.7202ms,0.0V 4.7399ms,0.0
	+ 4.7400ms,3.3V 4.7401ms,3.3
	+ 4.7402ms,0.0V 4.7599ms,0.0
	+ 4.7600ms,3.3V 4.7601ms,3.3
	+ 4.7602ms,0.0V 4.7799ms,0.0
	+ 4.7800ms,3.3V 4.7801ms,3.3
	+ 4.7802ms,0.0V 4.7999ms,0.0
	+ 4.8000ms,3.3V 4.8001ms,3.3
	+ 4.8002ms,0.0V 4.8199ms,0.0
	+ 4.8200ms,3.3V 4.8201ms,3.3
	+ 4.8202ms,0.0V 4.8399ms,0.0
	+ 4.8400ms,3.3V 4.8401ms,3.3
	+ 4.8402ms,0.0V 4.8599ms,0.0
	+ 4.8600ms,3.3V 4.8601ms,3.3
	+ 4.8602ms,0.0V 4.8799ms,0.0
	+ 4.8800ms,3.3V 4.8801ms,3.3
	+ 4.8802ms,0.0V 4.8999ms,0.0
	+ 4.9000ms,3.3V 4.9001ms,3.3
	+ 4.9002ms,0.0V 4.9199ms,0.0
	+ 4.9200ms,3.3V 4.9201ms,3.3
	+ 4.9202ms,0.0V 4.9399ms,0.0
	+ 4.9400ms,3.3V 4.9401ms,3.3
	+ 4.9402ms,0.0V 4.9599ms,0.0
	+ 4.9600ms,3.3V 4.9601ms,3.3
	+ 4.9602ms,0.0V 4.9799ms,0.0
	+ 4.9800ms,3.3V 4.9801ms,3.3
	+ 4.9802ms,0.0V 4.9999ms,0.0
	+ 5.0000ms,3.3V 5.0001ms,3.3
	+ 5.0002ms,0.0V 5.0199ms,0.0
	+ 5.0200ms,3.3V 5.0203ms,3.3
	+ 5.0204ms,0.0V 5.0399ms,0.0
	+ 5.0400ms,3.3V 5.0403ms,3.3
	+ 5.0404ms,0.0V 5.0599ms,0.0
	+ 5.0600ms,3.3V 5.0603ms,3.3
	+ 5.0604ms,0.0V 5.0799ms,0.0
	+ 5.0800ms,3.3V 5.0803ms,3.3
	+ 5.0804ms,0.0V 5.0999ms,0.0
	+ 5.1000ms,3.3V 5.1003ms,3.3
	+ 5.1004ms,0.0V 5.1199ms,0.0
	+ 5.1200ms,3.3V 5.1203ms,3.3
	+ 5.1204ms,0.0V 5.1399ms,0.0
	+ 5.1400ms,3.3V 5.1403ms,3.3
	+ 5.1404ms,0.0V 5.1599ms,0.0
	+ 5.1600ms,3.3V 5.1603ms,3.3
	+ 5.1604ms,0.0V 5.1799ms,0.0
	+ 5.1800ms,3.3V 5.1803ms,3.3
	+ 5.1804ms,0.0V 5.1999ms,0.0
	+ 5.2000ms,3.3V 5.2003ms,3.3
	+ 5.2004ms,0.0V 5.2199ms,0.0
	+ 5.2200ms,3.3V 5.2203ms,3.3
	+ 5.2204ms,0.0V 5.2399ms,0.0
	+ 5.2400ms,3.3V 5.2403ms,3.3
	+ 5.2404ms,0.0V 5.2599ms,0.0
	+ 5.2600ms,3.3V 5.2603ms,3.3
	+ 5.2604ms,0.0V 5.2799ms,0.0
	+ 5.2800ms,3.3V 5.2803ms,3.3
	+ 5.2804ms,0.0V 5.2999ms,0.0
	+ 5.3000ms,3.3V 5.3003ms,3.3
	+ 5.3004ms,0.0V 5.3199ms,0.0
	+ 5.3200ms,3.3V 5.3203ms,3.3
	+ 5.3204ms,0.0V 5.3399ms,0.0
	+ 5.3400ms,3.3V 5.3403ms,3.3
	+ 5.3404ms,0.0V 5.3599ms,0.0
	+ 5.3600ms,3.3V 5.3603ms,3.3
	+ 5.3604ms,0.0V 5.3799ms,0.0
	+ 5.3800ms,3.3V 5.3803ms,3.3
	+ 5.3804ms,0.0V 5.3999ms,0.0
	+ 5.4000ms,3.3V 5.4003ms,3.3
	+ 5.4004ms,0.0V 5.4199ms,0.0
	+ 5.4200ms,3.3V 5.4203ms,3.3
	+ 5.4204ms,0.0V 5.4399ms,0.0
	+ 5.4400ms,3.3V 5.4403ms,3.3
	+ 5.4404ms,0.0V 5.4599ms,0.0
	+ 5.4600ms,3.3V 5.4603ms,3.3
	+ 5.4604ms,0.0V 5.4799ms,0.0
	+ 5.4800ms,3.3V 5.4803ms,3.3
	+ 5.4804ms,0.0V 5.4999ms,0.0
	+ 5.5000ms,3.3V 5.5003ms,3.3
	+ 5.5004ms,0.0V 5.5199ms,0.0
	+ 5.5200ms,3.3V 5.5203ms,3.3
	+ 5.5204ms,0.0V 5.5399ms,0.0
	+ 5.5400ms,3.3V 5.5403ms,3.3
	+ 5.5404ms,0.0V 5.5599ms,0.0
	+ 5.5600ms,3.3V 5.5603ms,3.3
	+ 5.5604ms,0.0V 5.5799ms,0.0
	+ 5.5800ms,3.3V 5.5803ms,3.3
	+ 5.5804ms,0.0V 5.5999ms,0.0
	+ 5.6000ms,3.3V 5.6003ms,3.3
	+ 5.6004ms,0.0V 5.6199ms,0.0
	+ 5.6200ms,3.3V 5.6203ms,3.3
	+ 5.6204ms,0.0V 5.6399ms,0.0
	+ 5.6400ms,3.3V 5.6403ms,3.3
	+ 5.6404ms,0.0V 5.6599ms,0.0
	+ 5.6600ms,3.3V 5.6603ms,3.3
	+ 5.6604ms,0.0V 5.6799ms,0.0
	+ 5.6800ms,3.3V 5.6803ms,3.3
	+ 5.6804ms,0.0V 5.6999ms,0.0
	+ 5.7000ms,3.3V 5.7003ms,3.3
	+ 5.7004ms,0.0V 5.7199ms,0.0
	+ 5.7200ms,3.3V 5.7203ms,3.3
	+ 5.7204ms,0.0V 5.7399ms,0.0
	+ 5.7400ms,3.3V 5.7403ms,3.3
	+ 5.7404ms,0.0V 5.7599ms,0.0
	+ 5.7600ms,3.3V 5.7603ms,3.3
	+ 5.7604ms,0.0V 5.7799ms,0.0
	+ 5.7800ms,3.3V 5.7803ms,3.3
	+ 5.7804ms,0.0V 5.7999ms,0.0
	+ 5.8000ms,3.3V 5.8003ms,3.3
	+ 5.8004ms,0.0V 5.8199ms,0.0
	+ 5.8200ms,3.3V 5.8203ms,3.3
	+ 5.8204ms,0.0V 5.8399ms,0.0
	+ 5.8400ms,3.3V 5.8403ms,3.3
	+ 5.8404ms,0.0V 5.8599ms,0.0
	+ 5.8600ms,3.3V 5.8603ms,3.3
	+ 5.8604ms,0.0V 5.8799ms,0.0
	+ 5.8800ms,3.3V 5.8803ms,3.3
	+ 5.8804ms,0.0V 5.8999ms,0.0
	+ 5.9000ms,3.3V 5.9003ms,3.3
	+ 5.9004ms,0.0V 5.9199ms,0.0
	+ 5.9200ms,3.3V 5.9203ms,3.3
	+ 5.9204ms,0.0V 5.9399ms,0.0
	+ 5.9400ms,3.3V 5.9403ms,3.3
	+ 5.9404ms,0.0V 5.9599ms,0.0
	+ 5.9600ms,3.3V 5.9603ms,3.3
	+ 5.9604ms,0.0V 5.9799ms,0.0
	+ 5.9800ms,3.3V 5.9803ms,3.3
	+ 5.9804ms,0.0V 5.9999ms,0.0
	+ 6.0000ms,3.3V 6.0003ms,3.3
	+ 6.0004ms,0.0V 6.0199ms,0.0
	+ 6.0200ms,3.3V 6.0203ms,3.3
	+ 6.0204ms,0.0V 6.0399ms,0.0
	+ 6.0400ms,3.3V 6.0403ms,3.3
	+ 6.0404ms,0.0V 6.0599ms,0.0
	+ 6.0600ms,3.3V 6.0603ms,3.3
	+ 6.0604ms,0.0V 6.0799ms,0.0
	+ 6.0800ms,3.3V 6.0803ms,3.3
	+ 6.0804ms,0.0V 6.0999ms,0.0
	+ 6.1000ms,3.3V 6.1003ms,3.3
	+ 6.1004ms,0.0V 6.1199ms,0.0
	+ 6.1200ms,3.3V 6.1203ms,3.3
	+ 6.1204ms,0.0V 6.1399ms,0.0
	+ 6.1400ms,3.3V 6.1403ms,3.3
	+ 6.1404ms,0.0V 6.1599ms,0.0
	+ 6.1600ms,3.3V 6.1603ms,3.3
	+ 6.1604ms,0.0V 6.1799ms,0.0
	+ 6.1800ms,3.3V 6.1803ms,3.3
	+ 6.1804ms,0.0V 6.1999ms,0.0
	+ 6.2000ms,3.3V 6.2003ms,3.3
	+ 6.2004ms,0.0V 6.2199ms,0.0
	+ 6.2200ms,3.3V 6.2203ms,3.3
	+ 6.2204ms,0.0V 6.2399ms,0.0
	+ 6.2400ms,3.3V 6.2403ms,3.3
	+ 6.2404ms,0.0V 6.2599ms,0.0
	+ 6.2600ms,3.3V 6.2603ms,3.3
	+ 6.2604ms,0.0V 6.2799ms,0.0
	+ 6.2800ms,3.3V 6.2803ms,3.3
	+ 6.2804ms,0.0V 6.2999ms,0.0
	+ 6.3000ms,3.3V 6.3003ms,3.3
	+ 6.3004ms,0.0V 6.3199ms,0.0
	+ 6.3200ms,3.3V 6.3203ms,3.3
	+ 6.3204ms,0.0V 6.3399ms,0.0
	+ 6.3400ms,3.3V 6.3403ms,3.3
	+ 6.3404ms,0.0V 6.3599ms,0.0
	+ 6.3600ms,3.3V 6.3603ms,3.3
	+ 6.3604ms,0.0V 6.3799ms,0.0
	+ 6.3800ms,3.3V 6.3803ms,3.3
	+ 6.3804ms,0.0V 6.3999ms,0.0
	+ 6.4000ms,3.3V 6.4003ms,3.3
	+ 6.4004ms,0.0V 6.4199ms,0.0
	+ 6.4200ms,3.3V 6.4203ms,3.3
	+ 6.4204ms,0.0V 6.4399ms,0.0
	+ 6.4400ms,3.3V 6.4403ms,3.3
	+ 6.4404ms,0.0V 6.4599ms,0.0
	+ 6.4600ms,3.3V 6.4603ms,3.3
	+ 6.4604ms,0.0V 6.4799ms,0.0
	+ 6.4800ms,3.3V 6.4803ms,3.3
	+ 6.4804ms,0.0V 6.4999ms,0.0
	+ 6.5000ms,3.3V 6.5003ms,3.3
	+ 6.5004ms,0.0V 6.5199ms,0.0
	+ 6.5200ms,3.3V 6.5203ms,3.3
	+ 6.5204ms,0.0V 6.5399ms,0.0
	+ 6.5400ms,3.3V 6.5403ms,3.3
	+ 6.5404ms,0.0V 6.5599ms,0.0
	+ 6.5600ms,3.3V 6.5603ms,3.3
	+ 6.5604ms,0.0V 6.5799ms,0.0
	+ 6.5800ms,3.3V 6.5803ms,3.3
	+ 6.5804ms,0.0V 6.5999ms,0.0
	+ 6.6000ms,3.3V 6.6003ms,3.3
	+ 6.6004ms,0.0V 6.6199ms,0.0
	+ 6.6200ms,3.3V 6.6203ms,3.3
	+ 6.6204ms,0.0V 6.6399ms,0.0
	+ 6.6400ms,3.3V 6.6403ms,3.3
	+ 6.6404ms,0.0V 6.6599ms,0.0
	+ 6.6600ms,3.3V 6.6603ms,3.3
	+ 6.6604ms,0.0V 6.6799ms,0.0
	+ 6.6800ms,3.3V 6.6803ms,3.3
	+ 6.6804ms,0.0V 6.6999ms,0.0
	+ 6.7000ms,3.3V 6.7003ms,3.3
	+ 6.7004ms,0.0V 6.7199ms,0.0
	+ 6.7200ms,3.3V 6.7203ms,3.3
	+ 6.7204ms,0.0V 6.7399ms,0.0
	+ 6.7400ms,3.3V 6.7403ms,3.3
	+ 6.7404ms,0.0V 6.7599ms,0.0
	+ 6.7600ms,3.3V 6.7603ms,3.3
	+ 6.7604ms,0.0V 6.7799ms,0.0
	+ 6.7800ms,3.3V 6.7803ms,3.3
	+ 6.7804ms,0.0V 6.7999ms,0.0
	+ 6.8000ms,3.3V 6.8003ms,3.3
	+ 6.8004ms,0.0V 6.8199ms,0.0
	+ 6.8200ms,3.3V 6.8203ms,3.3
	+ 6.8204ms,0.0V 6.8399ms,0.0
	+ 6.8400ms,3.3V 6.8403ms,3.3
	+ 6.8404ms,0.0V 6.8599ms,0.0
	+ 6.8600ms,3.3V 6.8603ms,3.3
	+ 6.8604ms,0.0V 6.8799ms,0.0
	+ 6.8800ms,3.3V 6.8803ms,3.3
	+ 6.8804ms,0.0V 6.8999ms,0.0
	+ 6.9000ms,3.3V 6.9003ms,3.3
	+ 6.9004ms,0.0V 6.9199ms,0.0
	+ 6.9200ms,3.3V 6.9203ms,3.3
	+ 6.9204ms,0.0V 6.9399ms,0.0
	+ 6.9400ms,3.3V 6.9403ms,3.3
	+ 6.9404ms,0.0V 6.9599ms,0.0
	+ 6.9600ms,3.3V 6.9603ms,3.3
	+ 6.9604ms,0.0V 6.9799ms,0.0
	+ 6.9800ms,3.3V 6.9803ms,3.3
	+ 6.9804ms,0.0V 6.9999ms,0.0
	+ 7.0000ms,3.3V 7.0003ms,3.3
	+ 7.0004ms,0.0V 7.0199ms,0.0
	+ 7.0200ms,3.3V 7.0203ms,3.3
	+ 7.0204ms,0.0V 7.0399ms,0.0
	+ 7.0400ms,3.3V 7.0403ms,3.3
	+ 7.0404ms,0.0V 7.0599ms,0.0
	+ 7.0600ms,3.3V 7.0603ms,3.3
	+ 7.0604ms,0.0V 7.0799ms,0.0
	+ 7.0800ms,3.3V 7.0803ms,3.3
	+ 7.0804ms,0.0V 7.0999ms,0.0
	+ 7.1000ms,3.3V 7.1003ms,3.3
	+ 7.1004ms,0.0V 7.1199ms,0.0
	+ 7.1200ms,3.3V 7.1203ms,3.3
	+ 7.1204ms,0.0V 7.1399ms,0.0
	+ 7.1400ms,3.3V 7.1403ms,3.3
	+ 7.1404ms,0.0V 7.1599ms,0.0
	+ 7.1600ms,3.3V 7.1603ms,3.3
	+ 7.1604ms,0.0V 7.1799ms,0.0
	+ 7.1800ms,3.3V 7.1803ms,3.3
	+ 7.1804ms,0.0V 7.1999ms,0.0
	+ 7.2000ms,3.3V 7.2003ms,3.3
	+ 7.2004ms,0.0V 7.2199ms,0.0
	+ 7.2200ms,3.3V 7.2203ms,3.3
	+ 7.2204ms,0.0V 7.2399ms,0.0
	+ 7.2400ms,3.3V 7.2403ms,3.3
	+ 7.2404ms,0.0V 7.2599ms,0.0
	+ 7.2600ms,3.3V 7.2603ms,3.3
	+ 7.2604ms,0.0V 7.2799ms,0.0
	+ 7.2800ms,3.3V 7.2803ms,3.3
	+ 7.2804ms,0.0V 7.2999ms,0.0
	+ 7.3000ms,3.3V 7.3003ms,3.3
	+ 7.3004ms,0.0V 7.3199ms,0.0
	+ 7.3200ms,3.3V 7.3203ms,3.3
	+ 7.3204ms,0.0V 7.3399ms,0.0
	+ 7.3400ms,3.3V 7.3403ms,3.3
	+ 7.3404ms,0.0V 7.3599ms,0.0
	+ 7.3600ms,3.3V 7.3603ms,3.3
	+ 7.3604ms,0.0V 7.3799ms,0.0
	+ 7.3800ms,3.3V 7.3803ms,3.3
	+ 7.3804ms,0.0V 7.3999ms,0.0
	+ 7.4000ms,3.3V 7.4003ms,3.3
	+ 7.4004ms,0.0V 7.4199ms,0.0
	+ 7.4200ms,3.3V 7.4203ms,3.3
	+ 7.4204ms,0.0V 7.4399ms,0.0
	+ 7.4400ms,3.3V 7.4403ms,3.3
	+ 7.4404ms,0.0V 7.4599ms,0.0
	+ 7.4600ms,3.3V 7.4603ms,3.3
	+ 7.4604ms,0.0V 7.4799ms,0.0
	+ 7.4800ms,3.3V 7.4803ms,3.3
	+ 7.4804ms,0.0V 7.4999ms,0.0
	+ 7.5000ms,3.3V 7.5003ms,3.3
	+ 7.5004ms,0.0V 7.5199ms,0.0
	+ 7.5200ms,3.3V 7.5203ms,3.3
	+ 7.5204ms,0.0V 7.5399ms,0.0
	+ 7.5400ms,3.3V 7.5403ms,3.3
	+ 7.5404ms,0.0V 7.5599ms,0.0
	+ 7.5600ms,3.3V 7.5603ms,3.3
	+ 7.5604ms,0.0V 7.5799ms,0.0
	+ 7.5800ms,3.3V 7.5803ms,3.3
	+ 7.5804ms,0.0V 7.5999ms,0.0
	+ 7.6000ms,3.3V 7.6003ms,3.3
	+ 7.6004ms,0.0V 7.6199ms,0.0
	+ 7.6200ms,3.3V 7.6203ms,3.3
	+ 7.6204ms,0.0V 7.6399ms,0.0
	+ 7.6400ms,3.3V 7.6403ms,3.3
	+ 7.6404ms,0.0V 7.6599ms,0.0
	+ 7.6600ms,3.3V 7.6603ms,3.3
	+ 7.6604ms,0.0V 7.6799ms,0.0
	+ 7.6800ms,3.3V 7.6803ms,3.3
	+ 7.6804ms,0.0V 7.6999ms,0.0
	+ 7.7000ms,3.3V 7.7003ms,3.3
	+ 7.7004ms,0.0V 7.7199ms,0.0
	+ 7.7200ms,3.3V 7.7203ms,3.3
	+ 7.7204ms,0.0V 7.7399ms,0.0
	+ 7.7400ms,3.3V 7.7403ms,3.3
	+ 7.7404ms,0.0V 7.7599ms,0.0
	+ 7.7600ms,3.3V 7.7603ms,3.3
	+ 7.7604ms,0.0V 7.7799ms,0.0
	+ 7.7800ms,3.3V 7.7803ms,3.3
	+ 7.7804ms,0.0V 7.7999ms,0.0
	+ 7.8000ms,3.3V 7.8003ms,3.3
	+ 7.8004ms,0.0V 7.8199ms,0.0
	+ 7.8200ms,3.3V 7.8203ms,3.3
	+ 7.8204ms,0.0V 7.8399ms,0.0
	+ 7.8400ms,3.3V 7.8403ms,3.3
	+ 7.8404ms,0.0V 7.8599ms,0.0
	+ 7.8600ms,3.3V 7.8603ms,3.3
	+ 7.8604ms,0.0V 7.8799ms,0.0
	+ 7.8800ms,3.3V 7.8803ms,3.3
	+ 7.8804ms,0.0V 7.8999ms,0.0
	+ 7.9000ms,3.3V 7.9003ms,3.3
	+ 7.9004ms,0.0V 7.9199ms,0.0
	+ 7.9200ms,3.3V 7.9203ms,3.3
	+ 7.9204ms,0.0V 7.9399ms,0.0
	+ 7.9400ms,3.3V 7.9403ms,3.3
	+ 7.9404ms,0.0V 7.9599ms,0.0
	+ 7.9600ms,3.3V 7.9603ms,3.3
	+ 7.9604ms,0.0V 7.9799ms,0.0
	+ 7.9800ms,3.3V 7.9803ms,3.3
	+ 7.9804ms,0.0V 7.9999ms,0.0
	+ 8.0000ms,3.3V 8.0003ms,3.3
	+ 8.0004ms,0.0V 8.0199ms,0.0
	+ 8.0200ms,3.3V 8.0203ms,3.3
	+ 8.0204ms,0.0V 8.0399ms,0.0
	+ 8.0400ms,3.3V 8.0403ms,3.3
	+ 8.0404ms,0.0V 8.0599ms,0.0
	+ 8.0600ms,3.3V 8.0603ms,3.3
	+ 8.0604ms,0.0V 8.0799ms,0.0
	+ 8.0800ms,3.3V 8.0803ms,3.3
	+ 8.0804ms,0.0V 8.0999ms,0.0
	+ 8.1000ms,3.3V 8.1003ms,3.3
	+ 8.1004ms,0.0V 8.1199ms,0.0
	+ 8.1200ms,3.3V 8.1203ms,3.3
	+ 8.1204ms,0.0V 8.1399ms,0.0
	+ 8.1400ms,3.3V 8.1403ms,3.3
	+ 8.1404ms,0.0V 8.1599ms,0.0
	+ 8.1600ms,3.3V 8.1603ms,3.3
	+ 8.1604ms,0.0V 8.1799ms,0.0
	+ 8.1800ms,3.3V 8.1803ms,3.3
	+ 8.1804ms,0.0V 8.1999ms,0.0
	+ 8.2000ms,3.3V 8.2003ms,3.3
	+ 8.2004ms,0.0V 8.2199ms,0.0
	+ 8.2200ms,3.3V 8.2203ms,3.3
	+ 8.2204ms,0.0V 8.2399ms,0.0
	+ 8.2400ms,3.3V 8.2403ms,3.3
	+ 8.2404ms,0.0V 8.2599ms,0.0
	+ 8.2600ms,3.3V 8.2603ms,3.3
	+ 8.2604ms,0.0V 8.2799ms,0.0
	+ 8.2800ms,3.3V 8.2803ms,3.3
	+ 8.2804ms,0.0V 8.2999ms,0.0
	+ 8.3000ms,3.3V 8.3003ms,3.3
	+ 8.3004ms,0.0V 8.3199ms,0.0
	+ 8.3200ms,3.3V 8.3203ms,3.3
	+ 8.3204ms,0.0V 8.3399ms,0.0
	+ 8.3400ms,3.3V 8.3403ms,3.3
	+ 8.3404ms,0.0V 8.3599ms,0.0
	+ 8.3600ms,3.3V 8.3603ms,3.3
	+ 8.3604ms,0.0V 8.3799ms,0.0
	+ 8.3800ms,3.3V 8.3803ms,3.3
	+ 8.3804ms,0.0V 8.3999ms,0.0
	+ 8.4000ms,3.3V 8.4003ms,3.3
	+ 8.4004ms,0.0V 8.4199ms,0.0
	+ 8.4200ms,3.3V 8.4203ms,3.3
	+ 8.4204ms,0.0V 8.4399ms,0.0
	+ 8.4400ms,3.3V 8.4403ms,3.3
	+ 8.4404ms,0.0V 8.4599ms,0.0
	+ 8.4600ms,3.3V 8.4603ms,3.3
	+ 8.4604ms,0.0V 8.4799ms,0.0
	+ 8.4800ms,3.3V 8.4803ms,3.3
	+ 8.4804ms,0.0V 8.4999ms,0.0
	+ 8.5000ms,3.3V 8.5003ms,3.3
	+ 8.5004ms,0.0V 8.5199ms,0.0
	+ 8.5200ms,3.3V 8.5203ms,3.3
	+ 8.5204ms,0.0V 8.5399ms,0.0
	+ 8.5400ms,3.3V 8.5403ms,3.3
	+ 8.5404ms,0.0V 8.5599ms,0.0
	+ 8.5600ms,3.3V 8.5603ms,3.3
	+ 8.5604ms,0.0V 8.5799ms,0.0
	+ 8.5800ms,3.3V 8.5803ms,3.3
	+ 8.5804ms,0.0V 8.5999ms,0.0
	+ 8.6000ms,3.3V 8.6003ms,3.3
	+ 8.6004ms,0.0V 8.6199ms,0.0
	+ 8.6200ms,3.3V 8.6203ms,3.3
	+ 8.6204ms,0.0V 8.6399ms,0.0
	+ 8.6400ms,3.3V 8.6403ms,3.3
	+ 8.6404ms,0.0V 8.6599ms,0.0
	+ 8.6600ms,3.3V 8.6603ms,3.3
	+ 8.6604ms,0.0V 8.6799ms,0.0
	+ 8.6800ms,3.3V 8.6803ms,3.3
	+ 8.6804ms,0.0V 8.6999ms,0.0
	+ 8.7000ms,3.3V 8.7003ms,3.3
	+ 8.7004ms,0.0V 8.7199ms,0.0
	+ 8.7200ms,3.3V 8.7203ms,3.3
	+ 8.7204ms,0.0V 8.7399ms,0.0
	+ 8.7400ms,3.3V 8.7403ms,3.3
	+ 8.7404ms,0.0V 8.7599ms,0.0
	+ 8.7600ms,3.3V 8.7603ms,3.3
	+ 8.7604ms,0.0V 8.7799ms,0.0
	+ 8.7800ms,3.3V 8.7803ms,3.3
	+ 8.7804ms,0.0V 8.7999ms,0.0
	+ 8.8000ms,3.3V 8.8003ms,3.3
	+ 8.8004ms,0.0V 8.8199ms,0.0
	+ 8.8200ms,3.3V 8.8203ms,3.3
	+ 8.8204ms,0.0V 8.8399ms,0.0
	+ 8.8400ms,3.3V 8.8403ms,3.3
	+ 8.8404ms,0.0V 8.8599ms,0.0
	+ 8.8600ms,3.3V 8.8603ms,3.3
	+ 8.8604ms,0.0V 8.8799ms,0.0
	+ 8.8800ms,3.3V 8.8803ms,3.3
	+ 8.8804ms,0.0V 8.8999ms,0.0
	+ 8.9000ms,3.3V 8.9003ms,3.3
	+ 8.9004ms,0.0V 8.9199ms,0.0
	+ 8.9200ms,3.3V 8.9203ms,3.3
	+ 8.9204ms,0.0V 8.9399ms,0.0
	+ 8.9400ms,3.3V 8.9403ms,3.3
	+ 8.9404ms,0.0V 8.9599ms,0.0
	+ 8.9600ms,3.3V 8.9603ms,3.3
	+ 8.9604ms,0.0V 8.9799ms,0.0
	+ 8.9800ms,3.3V 8.9803ms,3.3
	+ 8.9804ms,0.0V 8.9999ms,0.0
	+ 9.0000ms,3.3V 9.0003ms,3.3
	+ 9.0004ms,0.0V 9.0199ms,0.0
	+ 9.0200ms,3.3V 9.0203ms,3.3
	+ 9.0204ms,0.0V 9.0399ms,0.0
	+ 9.0400ms,3.3V 9.0403ms,3.3
	+ 9.0404ms,0.0V 9.0599ms,0.0
	+ 9.0600ms,3.3V 9.0603ms,3.3
	+ 9.0604ms,0.0V 9.0799ms,0.0
	+ 9.0800ms,3.3V 9.0803ms,3.3
	+ 9.0804ms,0.0V 9.0999ms,0.0
	+ 9.1000ms,3.3V 9.1003ms,3.3
	+ 9.1004ms,0.0V 9.1199ms,0.0
	+ 9.1200ms,3.3V 9.1203ms,3.3
	+ 9.1204ms,0.0V 9.1399ms,0.0
	+ 9.1400ms,3.3V 9.1403ms,3.3
	+ 9.1404ms,0.0V 9.1599ms,0.0
	+ 9.1600ms,3.3V 9.1603ms,3.3
	+ 9.1604ms,0.0V 9.1799ms,0.0
	+ 9.1800ms,3.3V 9.1803ms,3.3
	+ 9.1804ms,0.0V 9.1999ms,0.0
	+ 9.2000ms,3.3V 9.2003ms,3.3
	+ 9.2004ms,0.0V 9.2199ms,0.0
	+ 9.2200ms,3.3V 9.2203ms,3.3
	+ 9.2204ms,0.0V 9.2399ms,0.0
	+ 9.2400ms,3.3V 9.2403ms,3.3
	+ 9.2404ms,0.0V 9.2599ms,0.0
	+ 9.2600ms,3.3V 9.2603ms,3.3
	+ 9.2604ms,0.0V 9.2799ms,0.0
	+ 9.2800ms,3.3V 9.2803ms,3.3
	+ 9.2804ms,0.0V 9.2999ms,0.0
	+ 9.3000ms,3.3V 9.3003ms,3.3
	+ 9.3004ms,0.0V 9.3199ms,0.0
	+ 9.3200ms,3.3V 9.3203ms,3.3
	+ 9.3204ms,0.0V 9.3399ms,0.0
	+ 9.3400ms,3.3V 9.3403ms,3.3
	+ 9.3404ms,0.0V 9.3599ms,0.0
	+ 9.3600ms,3.3V 9.3603ms,3.3
	+ 9.3604ms,0.0V 9.3799ms,0.0
	+ 9.3800ms,3.3V 9.3803ms,3.3
	+ 9.3804ms,0.0V 9.3999ms,0.0
	+ 9.4000ms,3.3V 9.4003ms,3.3
	+ 9.4004ms,0.0V 9.4199ms,0.0
	+ 9.4200ms,3.3V 9.4203ms,3.3
	+ 9.4204ms,0.0V 9.4399ms,0.0
	+ 9.4400ms,3.3V 9.4403ms,3.3
	+ 9.4404ms,0.0V 9.4599ms,0.0
	+ 9.4600ms,3.3V 9.4603ms,3.3
	+ 9.4604ms,0.0V 9.4799ms,0.0
	+ 9.4800ms,3.3V 9.4803ms,3.3
	+ 9.4804ms,0.0V 9.4999ms,0.0
	+ 9.5000ms,3.3V 9.5003ms,3.3
	+ 9.5004ms,0.0V 9.5199ms,0.0
	+ 9.5200ms,3.3V 9.5203ms,3.3
	+ 9.5204ms,0.0V 9.5399ms,0.0
	+ 9.5400ms,3.3V 9.5403ms,3.3
	+ 9.5404ms,0.0V 9.5599ms,0.0
	+ 9.5600ms,3.3V 9.5603ms,3.3
	+ 9.5604ms,0.0V 9.5799ms,0.0
	+ 9.5800ms,3.3V 9.5803ms,3.3
	+ 9.5804ms,0.0V 9.5999ms,0.0
	+ 9.6000ms,3.3V 9.6003ms,3.3
	+ 9.6004ms,0.0V 9.6199ms,0.0
	+ 9.6200ms,3.3V 9.6203ms,3.3
	+ 9.6204ms,0.0V 9.6399ms,0.0
	+ 9.6400ms,3.3V 9.6403ms,3.3
	+ 9.6404ms,0.0V 9.6599ms,0.0
	+ 9.6600ms,3.3V 9.6603ms,3.3
	+ 9.6604ms,0.0V 9.6799ms,0.0
	+ 9.6800ms,3.3V 9.6803ms,3.3
	+ 9.6804ms,0.0V 9.6999ms,0.0
	+ 9.7000ms,3.3V 9.7003ms,3.3
	+ 9.7004ms,0.0V 9.7199ms,0.0
	+ 9.7200ms,3.3V 9.7203ms,3.3
	+ 9.7204ms,0.0V 9.7399ms,0.0
	+ 9.7400ms,3.3V 9.7403ms,3.3
	+ 9.7404ms,0.0V 9.7599ms,0.0
	+ 9.7600ms,3.3V 9.7603ms,3.3
	+ 9.7604ms,0.0V 9.7799ms,0.0
	+ 9.7800ms,3.3V 9.7803ms,3.3
	+ 9.7804ms,0.0V 9.7999ms,0.0
	+ 9.8000ms,3.3V 9.8003ms,3.3
	+ 9.8004ms,0.0V 9.8199ms,0.0
	+ 9.8200ms,3.3V 9.8203ms,3.3
	+ 9.8204ms,0.0V 9.8399ms,0.0
	+ 9.8400ms,3.3V 9.8403ms,3.3
	+ 9.8404ms,0.0V 9.8599ms,0.0
	+ 9.8600ms,3.3V 9.8603ms,3.3
	+ 9.8604ms,0.0V 9.8799ms,0.0
	+ 9.8800ms,3.3V 9.8803ms,3.3
	+ 9.8804ms,0.0V 9.8999ms,0.0
	+ 9.9000ms,3.3V 9.9003ms,3.3
	+ 9.9004ms,0.0V 9.9199ms,0.0
	+ 9.9200ms,3.3V 9.9203ms,3.3
	+ 9.9204ms,0.0V 9.9399ms,0.0
	+ 9.9400ms,3.3V 9.9403ms,3.3
	+ 9.9404ms,0.0V 9.9599ms,0.0
	+ 9.9600ms,3.3V 9.9603ms,3.3